LTspice 24.1.9 for Windows
Circuit: E:\Documents\Masters\Circuit_Design\Test.net
Start Time: Thu Oct  9 20:43:34 2025
solver = Normal
Maximum thread count: 12
tnom = 27
temp = 27
method = trap
Direct Newton iteration for .op point succeeded.
Total elapsed time: 1.022 seconds.

Files loaded:
E:\Documents\Masters\Circuit_Design\Test.net
C:\Users\conor\AppData\Local\LTspice\lib\sub\opamp.sub

